Pcp_File_Version=4
    2
    1  0.000000e+000  1.000000e+000  1.000000e+000
    2 -3.000000e+002  1.000000e+000  1.000000e+000
  101    1    1    0 x         h      Mat  Lay      Beta           Axz            Bxz            Dxz          Temp          Conc            SConc
1	-0.000000e+000	-204.732	1	1	0.0	1.000000e+000	1.000000e+000	1.000000e+000	2.000000e+001	0.2417E-04	0.1727E-02
2	-3.000000e+000	-201.638	1	1	0.0	1.000000e+000	1.000000e+000	1.000000e+000	2.000000e+001	0.2394E-04	0.1722E-02
3	-6.000000e+000	-198.617	1	1	0.0	1.000000e+000	1.000000e+000	1.000000e+000	2.000000e+001	0.2381E-04	0.1720E-02
4	-9.000000e+000	-195.664	1	1	1.0	1.000000e+000	1.000000e+000	1.000000e+000	2.000000e+001	0.2369E-04	0.1717E-02
5	-1.200000e+001	-192.770	1	1	0.62499999	1.000000e+000	1.000000e+000	1.000000e+000	2.000000e+001	0.2357E-04	0.1715E-02
6	-1.500000e+001	-189.935	1	1	0.0	1.000000e+000	1.000000e+000	1.000000e+000	2.000000e+001	0.2344E-04	0.1713E-02
7	-1.800000e+001	-187.161	1	1	0.0	1.000000e+000	1.000000e+000	1.000000e+000	2.000000e+001	0.2332E-04	0.1711E-02
8	-2.100000e+001	-184.441	1	1	0.0	1.000000e+000	1.000000e+000	1.000000e+000	2.000000e+001	0.2321E-04	0.1708E-02
9	-2.400000e+001	-181.770	1	1	0.0	1.000000e+000	1.000000e+000	1.000000e+000	2.000000e+001	0.2309E-04	0.1706E-02
10	-2.700000e+001	-179.143	1	1	0.0	1.000000e+000	1.000000e+000	1.000000e+000	2.000000e+001	0.2298E-04	0.1704E-02
11	-3.000000e+001	-176.557	1	1	0.0	1.000000e+000	1.000000e+000	1.000000e+000	2.000000e+001	0.2287E-04	0.1702E-02
12	-3.300000e+001	-174.009	1	1	0.0	1.000000e+000	1.000000e+000	1.000000e+000	2.000000e+001	0.2277E-04	0.1701E-02
13	-3.600000e+001	-171.495	1	1	0.0	1.000000e+000	1.000000e+000	1.000000e+000	2.000000e+001	0.2266E-04	0.1699E-02
14	-3.900000e+001	-169.014	1	1	0.0	1.000000e+000	1.000000e+000	1.000000e+000	2.000000e+001	0.2256E-04	0.1697E-02
15	-4.200000e+001	-166.563	1	1	0.0	1.000000e+000	1.000000e+000	1.000000e+000	2.000000e+001	0.2246E-04	0.1695E-02
16	-4.500000e+001	-164.140	1	1	0.0	1.000000e+000	1.000000e+000	1.000000e+000	2.000000e+001	0.2237E-04	0.1693E-02
17	-4.800000e+001	-161.743	1	1	0.0	1.000000e+000	1.000000e+000	1.000000e+000	2.000000e+001	0.2227E-04	0.1691E-02
18	-5.100000e+001	-159.371	1	1	0.0	1.000000e+000	1.000000e+000	1.000000e+000	2.000000e+001	0.2218E-04	0.1690E-02
19	-5.400000e+001	-157.022	1	1	0.0	1.000000e+000	1.000000e+000	1.000000e+000	2.000000e+001	0.2208E-04	0.1688E-02
20	-5.700000e+001	-154.695	1	1	0.0	1.000000e+000	1.000000e+000	1.000000e+000	2.000000e+001	0.2199E-04	0.1686E-02
21	-6.000000e+001	-152.388	1	1	0.0	1.000000e+000	1.000000e+000	1.000000e+000	2.000000e+001	0.2190E-04	0.1684E-02
22	-6.300000e+001	-150.097	1	1	0.0	1.000000e+000	1.000000e+000	1.000000e+000	2.000000e+001	0.2181E-04	0.1683E-02
23	-6.600000e+001	-147.816	1	1	0.0	1.000000e+000	1.000000e+000	1.000000e+000	2.000000e+001	0.2171E-04	0.1681E-02
24	-6.900000e+001	-145.542	1	1	0.0	1.000000e+000	1.000000e+000	1.000000e+000	2.000000e+001	0.2162E-04	0.1679E-02
25	-7.200000e+001	-143.276	1	1	0.0	1.000000e+000	1.000000e+000	1.000000e+000	2.000000e+001	0.2153E-04	0.1678E-02
26	-7.500000e+001	-141.016	1	1	0.0	1.000000e+000	1.000000e+000	1.000000e+000	2.000000e+001	0.2144E-04	0.1676E-02
27	-7.800000e+001	-138.761	1	1	0.0	1.000000e+000	1.000000e+000	1.000000e+000	2.000000e+001	0.2136E-04	0.1674E-02
28	-8.100000e+001	-136.510	1	1	0.0	1.000000e+000	1.000000e+000	1.000000e+000	2.000000e+001	0.2127E-04	0.1673E-02
29	-8.400000e+001	-134.264	1	1	0.0	1.000000e+000	1.000000e+000	1.000000e+000	2.000000e+001	0.2118E-04	0.1671E-02
30	-8.700000e+001	-132.020	1	1	0.0	1.000000e+000	1.000000e+000	1.000000e+000	2.000000e+001	0.2109E-04	0.1670E-02
31	-9.000000e+001	-129.779	1	1	0.0	1.000000e+000	1.000000e+000	1.000000e+000	2.000000e+001	0.2101E-04	0.1668E-02
32	-9.300000e+001	-127.540	1	1	0.0	1.000000e+000	1.000000e+000	1.000000e+000	2.000000e+001	0.2092E-04	0.1666E-02
33	-9.600000e+001	-125.302	1	1	0.0	1.000000e+000	1.000000e+000	1.000000e+000	2.000000e+001	0.2084E-04	0.1665E-02
34	-9.900000e+001	-123.064	1	1	0.0	1.000000e+000	1.000000e+000	1.000000e+000	2.000000e+001	0.2075E-04	0.1663E-02
35	-1.020000e+002	-120.827	1	1	0.0	1.000000e+000	1.000000e+000	1.000000e+000	2.000000e+001	0.2067E-04	0.1662E-02
36	-1.050000e+002	-118.584	1	1	0.0	1.000000e+000	1.000000e+000	1.000000e+000	2.000000e+001	0.2058E-04	0.1660E-02
37	-1.080000e+002	-116.331	1	1	0.0	1.000000e+000	1.000000e+000	1.000000e+000	2.000000e+001	0.2050E-04	0.1658E-02
38	-1.110000e+002	-114.066	1	1	0.0	1.000000e+000	1.000000e+000	1.000000e+000	2.000000e+001	0.2041E-04	0.1657E-02
39	-1.140000e+002	-111.790	1	1	0.0	1.000000e+000	1.000000e+000	1.000000e+000	2.000000e+001	0.2033E-04	0.1655E-02
40	-1.170000e+002	-109.503	1	1	0.0	1.000000e+000	1.000000e+000	1.000000e+000	2.000000e+001	0.2024E-04	0.1654E-02
41	-1.200000e+002	-107.205	1	1	0.0	1.000000e+000	1.000000e+000	1.000000e+000	2.000000e+001	0.2016E-04	0.1652E-02
42	-1.230000e+002	-104.896	1	1	0.0	1.000000e+000	1.000000e+000	1.000000e+000	2.000000e+001	0.2007E-04	0.1650E-02
43	-1.260000e+002	-102.577	1	1	0.0	1.000000e+000	1.000000e+000	1.000000e+000	2.000000e+001	0.1998E-04	0.1649E-02
44	-1.290000e+002	-100.248	1	1	0.0	1.000000e+000	1.000000e+000	1.000000e+000	2.000000e+001	0.1990E-04	0.1647E-02
45	-1.320000e+002	-97.909	1	1	0.0	1.000000e+000	1.000000e+000	1.000000e+000	2.000000e+001	0.1982E-04	0.1645E-02
46	-1.350000e+002	-95.559	1	1	0.0	1.000000e+000	1.000000e+000	1.000000e+000	2.000000e+001	0.1973E-04	0.1644E-02
47	-1.380000e+002	-93.195	1	1	0.0	1.000000e+000	1.000000e+000	1.000000e+000	2.000000e+001	0.1964E-04	0.1642E-02
48	-1.410000e+002	-90.813	1	1	0.0	1.000000e+000	1.000000e+000	1.000000e+000	2.000000e+001	0.1956E-04	0.1640E-02
49	-1.440000e+002	-88.412	1	1	0.0	1.000000e+000	1.000000e+000	1.000000e+000	2.000000e+001	0.1947E-04	0.1639E-02
50	-1.470000e+002	-85.995	1	1	0.0	1.000000e+000	1.000000e+000	1.000000e+000	2.000000e+001	0.1939E-04	0.1637E-02
51	-1.500000e+002	-83.561	1	1	0.0	1.000000e+000	1.000000e+000	1.000000e+000	2.000000e+001	0.1930E-04	0.1635E-02
52	-1.530000e+002	-81.112	1	1	0.0	1.000000e+000	1.000000e+000	1.000000e+000	2.000000e+001	0.1922E-04	0.1634E-02
53	-1.560000e+002	-78.649	1	1	0.0	1.000000e+000	1.000000e+000	1.000000e+000	2.000000e+001	0.1913E-04	0.1632E-02
54	-1.590000e+002	-76.171	1	1	0.0	1.000000e+000	1.000000e+000	1.000000e+000	2.000000e+001	0.1905E-04	0.1630E-02
55	-1.620000e+002	-73.678	1	1	0.0	1.000000e+000	1.000000e+000	1.000000e+000	2.000000e+001	0.1896E-04	0.1629E-02
56	-1.650000e+002	-71.165	1	1	0.0	1.000000e+000	1.000000e+000	1.000000e+000	2.000000e+001	0.1888E-04	0.1627E-02
57	-1.680000e+002	-68.634	1	1	0.0	1.000000e+000	1.000000e+000	1.000000e+000	2.000000e+001	0.1880E-04	0.1625E-02
58	-1.710000e+002	-66.086	1	1	0.0	1.000000e+000	1.000000e+000	1.000000e+000	2.000000e+001	0.1871E-04	0.1623E-02
59	-1.740000e+002	-63.522	1	1	0.0	1.000000e+000	1.000000e+000	1.000000e+000	2.000000e+001	0.1863E-04	0.1622E-02
60	-1.770000e+002	-60.942	1	1	0.0	1.000000e+000	1.000000e+000	1.000000e+000	2.000000e+001	0.1855E-04	0.1620E-02
61	-1.800000e+002	-58.347	1	1	0.0	1.000000e+000	1.000000e+000	1.000000e+000	2.000000e+001	0.1846E-04	0.1618E-02
62	-1.830000e+002	-55.735	1	1	0.0	1.000000e+000	1.000000e+000	1.000000e+000	2.000000e+001	0.1838E-04	0.1617E-02
63	-1.860000e+002	-53.105	1	1	0.0	1.000000e+000	1.000000e+000	1.000000e+000	2.000000e+001	0.1830E-04	0.1615E-02
64	-1.890000e+002	-50.459	1	1	0.0	1.000000e+000	1.000000e+000	1.000000e+000	2.000000e+001	0.1823E-04	0.1613E-02
65	-1.920000e+002	-47.799	1	1	0.0	1.000000e+000	1.000000e+000	1.000000e+000	2.000000e+001	0.1815E-04	0.1612E-02
66	-1.950000e+002	-45.124	1	1	0.0	1.000000e+000	1.000000e+000	1.000000e+000	2.000000e+001	0.1807E-04	0.1610E-02
67	-1.980000e+002	-42.433	1	1	0.0	1.000000e+000	1.000000e+000	1.000000e+000	2.000000e+001	0.1800E-04	0.1609E-02
68	-2.010000e+002	-39.726	1	1	0.0	1.000000e+000	1.000000e+000	1.000000e+000	2.000000e+001	0.1792E-04	0.1607E-02
69	-2.040000e+002	-37.006	1	1	0.0	1.000000e+000	1.000000e+000	1.000000e+000	2.000000e+001	0.1785E-04	0.1606E-02
70	-2.070000e+002	-34.271	1	1	0.0	1.000000e+000	1.000000e+000	1.000000e+000	2.000000e+001	0.1778E-04	0.1604E-02
71	-2.100000e+002	-31.523	1	1	0.0	1.000000e+000	1.000000e+000	1.000000e+000	2.000000e+001	0.1772E-04	0.1603E-02
72	-2.130000e+002	-28.760	1	1	0.0	1.000000e+000	1.000000e+000	1.000000e+000	2.000000e+001	0.1765E-04	0.1601E-02
73	-2.160000e+002	-25.985	1	1	0.0	1.000000e+000	1.000000e+000	1.000000e+000	2.000000e+001	0.1759E-04	0.1600E-02
74	-2.190000e+002	-23.196	1	1	0.0	1.000000e+000	1.000000e+000	1.000000e+000	2.000000e+001	0.1753E-04	0.1599E-02
75	-2.220000e+002	-20.395	1	1	0.0	1.000000e+000	1.000000e+000	1.000000e+000	2.000000e+001	0.1748E-04	0.1597E-02
76	-2.250000e+002	-17.582	1	1	0.0	1.000000e+000	1.000000e+000	1.000000e+000	2.000000e+001	0.1743E-04	0.1596E-02
77	-2.280000e+002	-14.756	1	1	0.0	1.000000e+000	1.000000e+000	1.000000e+000	2.000000e+001	0.1738E-04	0.1595E-02
78	-2.310000e+002	-11.918	1	1	0.0	1.000000e+000	1.000000e+000	1.000000e+000	2.000000e+001	0.1734E-04	0.1594E-02
79	-2.340000e+002	-9.068	1	1	0.0	1.000000e+000	1.000000e+000	1.000000e+000	2.000000e+001	0.1730E-04	0.1594E-02
80	-2.370000e+002	-6.206	1	1	0.0	1.000000e+000	1.000000e+000	1.000000e+000	2.000000e+001	0.1727E-04	0.1593E-02
81	-2.400000e+002	-3.331	1	1	0.0	1.000000e+000	1.000000e+000	1.000000e+000	2.000000e+001	0.1725E-04	0.1593E-02
82	-2.430000e+002	-0.441	1	1	0.0	1.000000e+000	1.000000e+000	1.000000e+000	2.000000e+001	0.1723E-04	0.1592E-02
83	-2.460000e+002	2.461	1	1	0.0	1.000000e+000	1.000000e+000	1.000000e+000	2.000000e+001	0.1723E-04	0.1592E-02
84	-2.490000e+002	5.366	1	1	0.0	1.000000e+000	1.000000e+000	1.000000e+000	2.000000e+001	0.1723E-04	0.1592E-02
85	-2.520000e+002	8.272	1	1	0.0	1.000000e+000	1.000000e+000	1.000000e+000	2.000000e+001	0.1723E-04	0.1592E-02
86	-2.550000e+002	11.177	1	1	0.0	1.000000e+000	1.000000e+000	1.000000e+000	2.000000e+001	0.1723E-04	0.1592E-02
87	-2.580000e+002	14.082	1	1	0.0	1.000000e+000	1.000000e+000	1.000000e+000	2.000000e+001	0.1723E-04	0.1592E-02
88	-2.610000e+002	16.988	1	1	0.0	1.000000e+000	1.000000e+000	1.000000e+000	2.000000e+001	0.1723E-04	0.1592E-02
89	-2.640000e+002	19.893	1	1	0.0	1.000000e+000	1.000000e+000	1.000000e+000	2.000000e+001	0.1723E-04	0.1592E-02
90	-2.670000e+002	22.798	1	1	0.0	1.000000e+000	1.000000e+000	1.000000e+000	2.000000e+001	0.1723E-04	0.1592E-02
91	-2.700000e+002	25.704	1	1	0.0	1.000000e+000	1.000000e+000	1.000000e+000	2.000000e+001	0.1723E-04	0.1592E-02
92	-2.730000e+002	28.609	1	1	0.0	1.000000e+000	1.000000e+000	1.000000e+000	2.000000e+001	0.1723E-04	0.1592E-02
93	-2.760000e+002	31.514	1	1	0.0	1.000000e+000	1.000000e+000	1.000000e+000	2.000000e+001	0.1723E-04	0.1592E-02
94	-2.790000e+002	34.420	1	1	0.0	1.000000e+000	1.000000e+000	1.000000e+000	2.000000e+001	0.1723E-04	0.1592E-02
95	-2.820000e+002	37.325	1	1	0.0	1.000000e+000	1.000000e+000	1.000000e+000	2.000000e+001	0.1723E-04	0.1592E-02
96	-2.850000e+002	40.230	1	1	0.0	1.000000e+000	1.000000e+000	1.000000e+000	2.000000e+001	0.1723E-04	0.1592E-02
97	-2.880000e+002	43.136	1	1	0.0	1.000000e+000	1.000000e+000	1.000000e+000	2.000000e+001	0.1723E-04	0.1592E-02
98	-2.910000e+002	46.041	1	1	0.0	1.000000e+000	1.000000e+000	1.000000e+000	2.000000e+001	0.1723E-04	0.1592E-02
99	-2.940000e+002	48.946	1	1	0.0	1.000000e+000	1.000000e+000	1.000000e+000	2.000000e+001	0.1723E-04	0.1592E-02
100	-2.970000e+002	51.852	1	1	0.0	1.000000e+000	1.000000e+000	1.000000e+000	2.000000e+001	0.1723E-04	0.1592E-02
101	-3.000000e+002	54.757	1	1	0.0	1.000000e+000	1.000000e+000	1.000000e+000	2.000000e+001	0.1723E-04	0.1592E-02
   10
    1    6   11   16   21   26   36   46   56   66
