Pcp_File_Version=4
    2
    1  0.000000e+000  1.000000e+000  1.000000e+000
    2 -3.000000e+002  1.000000e+000  1.000000e+000
  101    1    1    0 x         h      Mat  Lay      Beta           Axz            Bxz            Dxz          Temp          Conc            SConc
1	-0.000000e+000	-1.000000e+002	1	1	0.0	1.000000e+000	1.000000e+000	1.000000e+000	2.000000e+001	0.000652798767838289	0.113586095817502
2	-3.000000e+000	-1.000000e+002	1	1	0.0	1.000000e+000	1.000000e+000	1.000000e+000	2.000000e+001	0.000652798767838289	0.113586095817502
3	-6.000000e+000	-1.000000e+002	1	1	0.0	1.000000e+000	1.000000e+000	1.000000e+000	2.000000e+001	0.000652798767838289	0.113586095817502
4	-9.000000e+000	-1.000000e+002	1	1	1.0	1.000000e+000	1.000000e+000	1.000000e+000	2.000000e+001	0.000652798767838289	0.113586095817502
5	-1.200000e+001	-1.000000e+002	1	1	0.0	1.000000e+000	1.000000e+000	1.000000e+000	2.000000e+001	0.000652798767838289	0.113586095817502
6	-1.500000e+001	-1.000000e+002	1	1	0.0	1.000000e+000	1.000000e+000	1.000000e+000	2.000000e+001	0.000652798767838289	0.113586095817502
7	-1.800000e+001	-1.000000e+002	1	1	0.0	1.000000e+000	1.000000e+000	1.000000e+000	2.000000e+001	0.000652798767838289	0.113586095817502
8	-2.100000e+001	-1.000000e+002	1	1	0.0	1.000000e+000	1.000000e+000	1.000000e+000	2.000000e+001	0.000609786566915100	0.106102086247704
9	-2.400000e+001	-1.000000e+002	1	1	0.0	1.000000e+000	1.000000e+000	1.000000e+000	2.000000e+001	0.000609786566915100	0.106102086247704
10	-2.700000e+001	-1.000000e+002	1	1	0.0	1.000000e+000	1.000000e+000	1.000000e+000	2.000000e+001	0.000609786566915100	0.106102086247704
11	-3.000000e+001	-1.000000e+002	1	1	0.0	1.000000e+000	1.000000e+000	1.000000e+000	2.000000e+001	0.000609786566915100	0.106102086247704
12	-3.300000e+001	-1.000000e+002	1	1	0.0	1.000000e+000	1.000000e+000	1.000000e+000	2.000000e+001	0.000609786566915100	0.106102086247704
13	-3.600000e+001	-1.000000e+002	1	1	0.0	1.000000e+000	1.000000e+000	1.000000e+000	2.000000e+001	0.000609786566915100	0.106102086247704
14	-3.900000e+001	-1.000000e+002	1	1	0.0	1.000000e+000	1.000000e+000	1.000000e+000	2.000000e+001	0.000609786566915100	0.106102086247704
15	-4.200000e+001	-1.000000e+002	1	1	0.0	1.000000e+000	1.000000e+000	1.000000e+000	2.000000e+001	0.000609786566915100	0.106102086247704
16	-4.500000e+001	-1.000000e+002	1	1	0.0	1.000000e+000	1.000000e+000	1.000000e+000	2.000000e+001	0.000609786566915100	0.106102086247704
17	-4.800000e+001	-1.000000e+002	1	1	0.0	1.000000e+000	1.000000e+000	1.000000e+000	2.000000e+001	0.000609786566915100	0.106102086247704
18	-5.100000e+001	-1.000000e+002	1	1	0.0	1.000000e+000	1.000000e+000	1.000000e+000	2.000000e+001	0.000609786566915100	0.106102086247704
19	-5.400000e+001	-1.000000e+002	1	1	0.0	1.000000e+000	1.000000e+000	1.000000e+000	2.000000e+001	0.000609786566915100	0.106102086247704
20	-5.700000e+001	-1.000000e+002	1	1	0.0	1.000000e+000	1.000000e+000	1.000000e+000	2.000000e+001	0.000609786566915100	0.106102086247704
21	-6.000000e+001	-1.000000e+002	1	1	0.0	1.000000e+000	1.000000e+000	1.000000e+000	2.000000e+001	0.000609786566915100	0.106102086247704
22	-6.300000e+001	-1.000000e+002	1	1	0.0	1.000000e+000	1.000000e+000	1.000000e+000	2.000000e+001	0.000609786566915100	0.106102086247704
23	-6.600000e+001	-1.000000e+002	1	1	0.0	1.000000e+000	1.000000e+000	1.000000e+000	2.000000e+001	0.000609786566915100	0.106102086247704
24	-6.900000e+001	-1.000000e+002	1	1	0.0	1.000000e+000	1.000000e+000	1.000000e+000	2.000000e+001	0.000609786566915100	0.106102086247704
25	-7.200000e+001	-1.000000e+002	1	1	0.0	1.000000e+000	1.000000e+000	1.000000e+000	2.000000e+001	0.000609786566915100	0.106102086247704
26	-7.500000e+001	-1.000000e+002	1	1	0.0	1.000000e+000	1.000000e+000	1.000000e+000	2.000000e+001	0.000609786566915100	0.106102086247704
27	-7.800000e+001	-1.000000e+002	1	1	0.0	1.000000e+000	1.000000e+000	1.000000e+000	2.000000e+001	0.000609786566915100	0.106102086247704
28	-8.100000e+001	-1.000000e+002	1	1	0.0	1.000000e+000	1.000000e+000	1.000000e+000	2.000000e+001	0.000609786566915100	0.106102086247704
29	-8.400000e+001	-1.000000e+002	1	1	0.0	1.000000e+000	1.000000e+000	1.000000e+000	2.000000e+001	0.000609786566915100	0.106102086247704
30	-8.700000e+001	-1.000000e+002	1	1	0.0	1.000000e+000	1.000000e+000	1.000000e+000	2.000000e+001	0.000609786566915100	0.106102086247704
31	-9.000000e+001	-1.000000e+002	1	1	0.0	1.000000e+000	1.000000e+000	1.000000e+000	2.000000e+001	0.000609786566915100	0.106102086247704
32	-9.300000e+001	-1.000000e+002	1	1	0.0	1.000000e+000	1.000000e+000	1.000000e+000	2.000000e+001	0.000609786566915100	0.106102086247704
33	-9.600000e+001	-1.000000e+002	1	1	0.0	1.000000e+000	1.000000e+000	1.000000e+000	2.000000e+001	0.000609786566915100	0.106102086247704
34	-9.900000e+001	-1.000000e+002	1	1	0.0	1.000000e+000	1.000000e+000	1.000000e+000	2.000000e+001	0.000609786566915100	0.106102086247704
35	-1.020000e+002	-1.000000e+002	1	1	0.0	1.000000e+000	1.000000e+000	1.000000e+000	2.000000e+001	0.000609786566915100	0.106102086247704
36	-1.050000e+002	-1.000000e+002	1	1	0.0	1.000000e+000	1.000000e+000	1.000000e+000	2.000000e+001	0.000609786566915100	0.106102086247704
37	-1.080000e+002	-1.000000e+002	1	1	0.0	1.000000e+000	1.000000e+000	1.000000e+000	2.000000e+001	0.000609786566915100	0.106102086247704
38	-1.110000e+002	-1.000000e+002	1	1	0.0	1.000000e+000	1.000000e+000	1.000000e+000	2.000000e+001	0.000609786566915100	0.106102086247704
39	-1.140000e+002	-1.000000e+002	1	1	0.0	1.000000e+000	1.000000e+000	1.000000e+000	2.000000e+001	0.000609786566915100	0.106102086247704
40	-1.170000e+002	-1.000000e+002	1	1	0.0	1.000000e+000	1.000000e+000	1.000000e+000	2.000000e+001	0.000609786566915100	0.106102086247704
41	-1.200000e+002	-1.000000e+002	1	1	0.0	1.000000e+000	1.000000e+000	1.000000e+000	2.000000e+001	0.000609786566915100	0.106102086247704
42	-1.230000e+002	-1.000000e+002	1	1	0.0	1.000000e+000	1.000000e+000	1.000000e+000	2.000000e+001	0.000609786566915100	0.106102086247704
43	-1.260000e+002	-1.000000e+002	1	1	0.0	1.000000e+000	1.000000e+000	1.000000e+000	2.000000e+001	0.000609786566915100	0.106102086247704
44	-1.290000e+002	-1.000000e+002	1	1	0.0	1.000000e+000	1.000000e+000	1.000000e+000	2.000000e+001	0.000609786566915100	0.106102086247704
45	-1.320000e+002	-1.000000e+002	1	1	0.0	1.000000e+000	1.000000e+000	1.000000e+000	2.000000e+001	0.000609786566915100	0.106102086247704
46	-1.350000e+002	-1.000000e+002	1	1	0.0	1.000000e+000	1.000000e+000	1.000000e+000	2.000000e+001	0.000609786566915100	0.106102086247704
47	-1.380000e+002	-1.000000e+002	1	1	0.0	1.000000e+000	1.000000e+000	1.000000e+000	2.000000e+001	0.000609786566915100	0.106102086247704
48	-1.410000e+002	-1.000000e+002	1	1	0.0	1.000000e+000	1.000000e+000	1.000000e+000	2.000000e+001	0.000609786566915100	0.106102086247704
49	-1.440000e+002	-1.000000e+002	1	1	0.0	1.000000e+000	1.000000e+000	1.000000e+000	2.000000e+001	0.000609786566915100	0.106102086247704
50	-1.470000e+002	-1.000000e+002	1	1	0.0	1.000000e+000	1.000000e+000	1.000000e+000	2.000000e+001	0.000609786566915100	0.106102086247704
51	-1.500000e+002	-1.000000e+002	1	1	0.0	1.000000e+000	1.000000e+000	1.000000e+000	2.000000e+001	0.000609786566915100	0.106102086247704
52	-1.530000e+002	-1.000000e+002	1	1	0.0	1.000000e+000	1.000000e+000	1.000000e+000	2.000000e+001	0.000609786566915100	0.106102086247704
53	-1.560000e+002	-1.000000e+002	1	1	0.0	1.000000e+000	1.000000e+000	1.000000e+000	2.000000e+001	0.000609786566915100	0.106102086247704
54	-1.590000e+002	-1.000000e+002	1	1	0.0	1.000000e+000	1.000000e+000	1.000000e+000	2.000000e+001	0.000609786566915100	0.106102086247704
55	-1.620000e+002	-1.000000e+002	1	1	0.0	1.000000e+000	1.000000e+000	1.000000e+000	2.000000e+001	0.000609786566915100	0.106102086247704
56	-1.650000e+002	-1.000000e+002	1	1	0.0	1.000000e+000	1.000000e+000	1.000000e+000	2.000000e+001	0.000609786566915100	0.106102086247704
57	-1.680000e+002	-1.000000e+002	1	1	0.0	1.000000e+000	1.000000e+000	1.000000e+000	2.000000e+001	0.000609786566915100	0.106102086247704
58	-1.710000e+002	-1.000000e+002	1	1	0.0	1.000000e+000	1.000000e+000	1.000000e+000	2.000000e+001	0.000609786566915100	0.106102086247704
59	-1.740000e+002	-1.000000e+002	1	1	0.0	1.000000e+000	1.000000e+000	1.000000e+000	2.000000e+001	0.000609786566915100	0.106102086247704
60	-1.770000e+002	-1.000000e+002	1	1	0.0	1.000000e+000	1.000000e+000	1.000000e+000	2.000000e+001	0.000609786566915100	0.106102086247704
61	-1.800000e+002	-1.000000e+002	1	1	0.0	1.000000e+000	1.000000e+000	1.000000e+000	2.000000e+001	0.000609786566915100	0.106102086247704
62	-1.830000e+002	-1.000000e+002	1	1	0.0	1.000000e+000	1.000000e+000	1.000000e+000	2.000000e+001	0.000609786566915100	0.106102086247704
63	-1.860000e+002	-1.000000e+002	1	1	0.0	1.000000e+000	1.000000e+000	1.000000e+000	2.000000e+001	0.000609786566915100	0.106102086247704
64	-1.890000e+002	-1.000000e+002	1	1	0.0	1.000000e+000	1.000000e+000	1.000000e+000	2.000000e+001	0.000609786566915100	0.106102086247704
65	-1.920000e+002	-1.000000e+002	1	1	0.0	1.000000e+000	1.000000e+000	1.000000e+000	2.000000e+001	0.000609786566915100	0.106102086247704
66	-1.950000e+002	-1.000000e+002	1	1	0.0	1.000000e+000	1.000000e+000	1.000000e+000	2.000000e+001	0.000609786566915100	0.106102086247704
67	-1.980000e+002	-1.000000e+002	1	1	0.0	1.000000e+000	1.000000e+000	1.000000e+000	2.000000e+001	0.000609786566915100	0.106102086247704
68	-2.010000e+002	-1.000000e+002	1	1	0.0	1.000000e+000	1.000000e+000	1.000000e+000	2.000000e+001	0.000609786566915100	0.106102086247704
69	-2.040000e+002	-1.000000e+002	1	1	0.0	1.000000e+000	1.000000e+000	1.000000e+000	2.000000e+001	0.000609786566915100	0.106102086247704
70	-2.070000e+002	-1.000000e+002	1	1	0.0	1.000000e+000	1.000000e+000	1.000000e+000	2.000000e+001	0.000609786566915100	0.106102086247704
71	-2.100000e+002	-1.000000e+002	1	1	0.0	1.000000e+000	1.000000e+000	1.000000e+000	2.000000e+001	0.000609786566915100	0.106102086247704
72	-2.130000e+002	-1.000000e+002	1	1	0.0	1.000000e+000	1.000000e+000	1.000000e+000	2.000000e+001	0.000609786566915100	0.106102086247704
73	-2.160000e+002	-1.000000e+002	1	1	0.0	1.000000e+000	1.000000e+000	1.000000e+000	2.000000e+001	0.000609786566915100	0.106102086247704
74	-2.190000e+002	-1.000000e+002	1	1	0.0	1.000000e+000	1.000000e+000	1.000000e+000	2.000000e+001	0.000609786566915100	0.106102086247704
75	-2.220000e+002	-1.000000e+002	1	1	0.0	1.000000e+000	1.000000e+000	1.000000e+000	2.000000e+001	0.000609786566915100	0.106102086247704
76	-2.250000e+002	-1.000000e+002	1	1	0.0	1.000000e+000	1.000000e+000	1.000000e+000	2.000000e+001	0.000609786566915100	0.106102086247704
77	-2.280000e+002	-1.000000e+002	1	1	0.0	1.000000e+000	1.000000e+000	1.000000e+000	2.000000e+001	0.000609786566915100	0.106102086247704
78	-2.310000e+002	-1.000000e+002	1	1	0.0	1.000000e+000	1.000000e+000	1.000000e+000	2.000000e+001	0.000609786566915100	0.106102086247704
79	-2.340000e+002	-1.000000e+002	1	1	0.0	1.000000e+000	1.000000e+000	1.000000e+000	2.000000e+001	0.000609786566915100	0.106102086247704
80	-2.370000e+002	-1.000000e+002	1	1	0.0	1.000000e+000	1.000000e+000	1.000000e+000	2.000000e+001	0.000609786566915100	0.106102086247704
81	-2.400000e+002	-1.000000e+002	1	1	0.0	1.000000e+000	1.000000e+000	1.000000e+000	2.000000e+001	0.000609786566915100	0.106102086247704
82	-2.430000e+002	-1.000000e+002	1	1	0.0	1.000000e+000	1.000000e+000	1.000000e+000	2.000000e+001	0.000609786566915100	0.106102086247704
83	-2.460000e+002	-1.000000e+002	1	1	0.0	1.000000e+000	1.000000e+000	1.000000e+000	2.000000e+001	0.000609786566915100	0.106102086247704
84	-2.490000e+002	-1.000000e+002	1	1	0.0	1.000000e+000	1.000000e+000	1.000000e+000	2.000000e+001	0.000609786566915100	0.106102086247704
85	-2.520000e+002	-1.000000e+002	1	1	0.0	1.000000e+000	1.000000e+000	1.000000e+000	2.000000e+001	0.000609786566915100	0.106102086247704
86	-2.550000e+002	-1.000000e+002	1	1	0.0	1.000000e+000	1.000000e+000	1.000000e+000	2.000000e+001	0.000609786566915100	0.106102086247704
87	-2.580000e+002	-1.000000e+002	1	1	0.0	1.000000e+000	1.000000e+000	1.000000e+000	2.000000e+001	0.000609786566915100	0.106102086247704
88	-2.610000e+002	-1.000000e+002	1	1	0.0	1.000000e+000	1.000000e+000	1.000000e+000	2.000000e+001	0.000609786566915100	0.106102086247704
89	-2.640000e+002	-1.000000e+002	1	1	0.0	1.000000e+000	1.000000e+000	1.000000e+000	2.000000e+001	0.000609786566915100	0.106102086247704
90	-2.670000e+002	-1.000000e+002	1	1	0.0	1.000000e+000	1.000000e+000	1.000000e+000	2.000000e+001	0.000609786566915100	0.106102086247704
91	-2.700000e+002	-1.000000e+002	1	1	0.0	1.000000e+000	1.000000e+000	1.000000e+000	2.000000e+001	0.000609786566915100	0.106102086247704
92	-2.730000e+002	-1.000000e+002	1	1	0.0	1.000000e+000	1.000000e+000	1.000000e+000	2.000000e+001	0.000609786566915100	0.106102086247704
93	-2.760000e+002	-1.000000e+002	1	1	0.0	1.000000e+000	1.000000e+000	1.000000e+000	2.000000e+001	0.000609786566915100	0.106102086247704
94	-2.790000e+002	-1.000000e+002	1	1	0.0	1.000000e+000	1.000000e+000	1.000000e+000	2.000000e+001	0.000609786566915100	0.106102086247704
95	-2.820000e+002	-1.000000e+002	1	1	0.0	1.000000e+000	1.000000e+000	1.000000e+000	2.000000e+001	0.000609786566915100	0.106102086247704
96	-2.850000e+002	-1.000000e+002	1	1	0.0	1.000000e+000	1.000000e+000	1.000000e+000	2.000000e+001	0.000609786566915100	0.106102086247704
97	-2.880000e+002	-1.000000e+002	1	1	0.0	1.000000e+000	1.000000e+000	1.000000e+000	2.000000e+001	0.000609786566915100	0.106102086247704
98	-2.910000e+002	-1.000000e+002	1	1	0.0	1.000000e+000	1.000000e+000	1.000000e+000	2.000000e+001	0.000609786566915100	0.106102086247704
99	-2.940000e+002	-1.000000e+002	1	1	0.0	1.000000e+000	1.000000e+000	1.000000e+000	2.000000e+001	0.000609786566915100	0.106102086247704
100	-2.970000e+002	-1.000000e+002	1	1	0.0	1.000000e+000	1.000000e+000	1.000000e+000	2.000000e+001	0.000609786566915100	0.106102086247704
101	-3.000000e+002	-1.000000e+002	1	1	0.0	1.000000e+000	1.000000e+000	1.000000e+000	2.000000e+001	0.000609786566915100	0.106102086247704
    3
    1    8   14
